# Discretization file for MODFLOW, generated by Flopy.
         3        10        10         3         4         2
  0  0  0
CONSTANT    1.000000E+02                           #delr                          
CONSTANT    1.000000E+02                           #delc                          
CONSTANT    0.000000E+00                           #model_top                     
CONSTANT   -1.666667E+01                           #botm Layer 1                  
CONSTANT   -3.333333E+01                           #botm Layer 2                  
CONSTANT   -5.000000E+01                           #botm Layer 3                  
      1.000000             1  1.000000  SS 
    100.000000           100  1.000000  TR 
    100.000000           100  1.000000  TR 
