# RIV for MODFLOW, generated by Flopy.
        60         0
        60         0 # stress period 0
         1         1         1 10.000000 6000.000000 -5.000000
         1         1        10 10.000000 6000.000000 -5.000000
         1         2         1 10.000000 6000.000000 -5.000000
         1         2        10 10.000000 6000.000000 -5.000000
         1         3         1 10.000000 6000.000000 -5.000000
         1         3        10 10.000000 6000.000000 -5.000000
         1         4         1 10.000000 6000.000000 -5.000000
         1         4        10 10.000000 6000.000000 -5.000000
         1         5         1 10.000000 6000.000000 -5.000000
         1         5        10 10.000000 6000.000000 -5.000000
         1         6         1 10.000000 6000.000000 -5.000000
         1         6        10 10.000000 6000.000000 -5.000000
         1         7         1 10.000000 6000.000000 -5.000000
         1         7        10 10.000000 6000.000000 -5.000000
         1         8         1 10.000000 6000.000000 -5.000000
         1         8        10 10.000000 6000.000000 -5.000000
         1         9         1 10.000000 6000.000000 -5.000000
         1         9        10 10.000000 6000.000000 -5.000000
         1        10         1 10.000000 6000.000000 -5.000000
         1        10        10 10.000000 6000.000000 -5.000000
         2         1         1 10.000000 6000.000000 -5.000000
         2         1        10 10.000000 6000.000000 -5.000000
         2         2         1 10.000000 6000.000000 -5.000000
         2         2        10 10.000000 6000.000000 -5.000000
         2         3         1 10.000000 6000.000000 -5.000000
         2         3        10 10.000000 6000.000000 -5.000000
         2         4         1 10.000000 6000.000000 -5.000000
         2         4        10 10.000000 6000.000000 -5.000000
         2         5         1 10.000000 6000.000000 -5.000000
         2         5        10 10.000000 6000.000000 -5.000000
         2         6         1 10.000000 6000.000000 -5.000000
         2         6        10 10.000000 6000.000000 -5.000000
         2         7         1 10.000000 6000.000000 -5.000000
         2         7        10 10.000000 6000.000000 -5.000000
         2         8         1 10.000000 6000.000000 -5.000000
         2         8        10 10.000000 6000.000000 -5.000000
         2         9         1 10.000000 6000.000000 -5.000000
         2         9        10 10.000000 6000.000000 -5.000000
         2        10         1 10.000000 6000.000000 -5.000000
         2        10        10 10.000000 6000.000000 -5.000000
         3         1         1 10.000000 6000.000000 -5.000000
         3         1        10 10.000000 6000.000000 -5.000000
         3         2         1 10.000000 6000.000000 -5.000000
         3         2        10 10.000000 6000.000000 -5.000000
         3         3         1 10.000000 6000.000000 -5.000000
         3         3        10 10.000000 6000.000000 -5.000000
         3         4         1 10.000000 6000.000000 -5.000000
         3         4        10 10.000000 6000.000000 -5.000000
         3         5         1 10.000000 6000.000000 -5.000000
         3         5        10 10.000000 6000.000000 -5.000000
         3         6         1 10.000000 6000.000000 -5.000000
         3         6        10 10.000000 6000.000000 -5.000000
         3         7         1 10.000000 6000.000000 -5.000000
         3         7        10 10.000000 6000.000000 -5.000000
         3         8         1 10.000000 6000.000000 -5.000000
         3         8        10 10.000000 6000.000000 -5.000000
         3         9         1 10.000000 6000.000000 -5.000000
         3         9        10 10.000000 6000.000000 -5.000000
         3        10         1 10.000000 6000.000000 -5.000000
         3        10        10 10.000000 6000.000000 -5.000000
        60         0 # stress period 1
         1         1         1 10.000000 6000.000000 -5.000000
         1         1        10  0.000000 5000.000000 -5.000000
         1         2         1 10.000000 6000.000000 -5.000000
         1         2        10  0.000000 5000.000000 -5.000000
         1         3         1 10.000000 6000.000000 -5.000000
         1         3        10  0.000000 5000.000000 -5.000000
         1         4         1 10.000000 6000.000000 -5.000000
         1         4        10  0.000000 5000.000000 -5.000000
         1         5         1 10.000000 6000.000000 -5.000000
         1         5        10  0.000000 5000.000000 -5.000000
         1         6         1 10.000000 6000.000000 -5.000000
         1         6        10  0.000000 5000.000000 -5.000000
         1         7         1 10.000000 6000.000000 -5.000000
         1         7        10  0.000000 5000.000000 -5.000000
         1         8         1 10.000000 6000.000000 -5.000000
         1         8        10  0.000000 5000.000000 -5.000000
         1         9         1 10.000000 6000.000000 -5.000000
         1         9        10  0.000000 5000.000000 -5.000000
         1        10         1 10.000000 6000.000000 -5.000000
         1        10        10  0.000000 5000.000000 -5.000000
         2         1         1 10.000000 6000.000000 -5.000000
         2         1        10  0.000000 5000.000000 -5.000000
         2         2         1 10.000000 6000.000000 -5.000000
         2         2        10  0.000000 5000.000000 -5.000000
         2         3         1 10.000000 6000.000000 -5.000000
         2         3        10  0.000000 5000.000000 -5.000000
         2         4         1 10.000000 6000.000000 -5.000000
         2         4        10  0.000000 5000.000000 -5.000000
         2         5         1 10.000000 6000.000000 -5.000000
         2         5        10  0.000000 5000.000000 -5.000000
         2         6         1 10.000000 6000.000000 -5.000000
         2         6        10  0.000000 5000.000000 -5.000000
         2         7         1 10.000000 6000.000000 -5.000000
         2         7        10  0.000000 5000.000000 -5.000000
         2         8         1 10.000000 6000.000000 -5.000000
         2         8        10  0.000000 5000.000000 -5.000000
         2         9         1 10.000000 6000.000000 -5.000000
         2         9        10  0.000000 5000.000000 -5.000000
         2        10         1 10.000000 6000.000000 -5.000000
         2        10        10  0.000000 5000.000000 -5.000000
         3         1         1 10.000000 6000.000000 -5.000000
         3         1        10  0.000000 5000.000000 -5.000000
         3         2         1 10.000000 6000.000000 -5.000000
         3         2        10  0.000000 5000.000000 -5.000000
         3         3         1 10.000000 6000.000000 -5.000000
         3         3        10  0.000000 5000.000000 -5.000000
         3         4         1 10.000000 6000.000000 -5.000000
         3         4        10  0.000000 5000.000000 -5.000000
         3         5         1 10.000000 6000.000000 -5.000000
         3         5        10  0.000000 5000.000000 -5.000000
         3         6         1 10.000000 6000.000000 -5.000000
         3         6        10  0.000000 5000.000000 -5.000000
         3         7         1 10.000000 6000.000000 -5.000000
         3         7        10  0.000000 5000.000000 -5.000000
         3         8         1 10.000000 6000.000000 -5.000000
         3         8        10  0.000000 5000.000000 -5.000000
         3         9         1 10.000000 6000.000000 -5.000000
         3         9        10  0.000000 5000.000000 -5.000000
         3        10         1 10.000000 6000.000000 -5.000000
         3        10        10  0.000000 5000.000000 -5.000000
        -1         0 # stress period 2
