# RCH for MODFLOW, generated by Flopy.
         3         0
         1        -1 # Stress period 1
CONSTANT    0.000000E+00                           #rech_1(filled zero)           
         1        -1 # Stress period 2
CONSTANT    1.200000E-04                           #rech_2                        
         1        -1 # Stress period 3
CONSTANT    1.200000E-05                           #rech_3                        
